units           metal
boundary        p p p
atom_style      atomic
atom_modify     map array sort 10000 2.0
read_data         T440.dat
  orthogonal box = (-6.12347 -6.12347 -6.12347) to (78.5235 78.5235 78.5235)
  reading atoms ...
  32000 atoms
pair_style      eam/fs
pair_coeff      * * Al90Sm10_MendelevM_2014.eam.fs  Al Sm
mass            1  26.98	#Al
mass            2  150.36	#Sm
neighbor            2.0 bin
neigh_modify    delay 5
timestep 0.002
thermo 1000

fix             1 all npt temp 440 440 0.02 iso 0 0 0.2
thermo_style custom step temp pe etotal press vol lx ly lz density etotal enthalpy
run 100000
  1 neighbor list requests
  update every 1 steps, delay 5 steps, check yes
Step Temp PotEng TotEng Press Volume Lx Ly Lz Density TotEng Enthalpy
0            0   -129100.97   -129100.97   -3333.5514    606504.34    84.646948    84.646948    84.646948    3.4498078   -129100.97   -130362.89
Averages over the last 51 of 101 rows, steps 50000 to 100000:
Temp PotEng TotEng Press Volume Lx Ly Lz Density TotEng Enthalpy
440.128 -129106 -127285 -51.5164 606352 84.6399 84.6399 84.6399 3.45068 -127285 -127305
Loop time of 281.339 on 84 procs for 100000 steps with 32000 atoms

unfix 1

reset_timestep 0

fix             1 all nvt temp 440 440 0.1

shell "rm -f out*.colvars.*"
fix		2 all colvars configfile

thermo 10000

dump            1 all custom 100000 dump.440 id type x y z
dump_modify 1 sort id

run 10000000
colvars: Creating proxy instance
colvars: ----------------------------------------------------------------------
colvars: Initializing the collective variables module, version 2016-10-21.
colvars: Please cite Fiorin et al, Mol Phys 2013:
colvars:  http://dx.doi.org/10.1080/00268976.2013.813594
colvars: in any publication based on this calculation.
colvars: SMP parallelism is available.
colvars: Using LAMMPS interface, version 2016-10-05.
colvars: ----------------------------------------------------------------------
colvars: Reading new configuration from file "configfile":
colvars: # indexFile = "" [default]
colvars: # smp = on [default]
colvars: # analysis = off [default]
colvars: # colvarsTrajFrequency = 100
colvars: # colvarsRestartFrequency = 100000
colvars: # colvarsTrajAppend = off [default]
colvars: # scriptedColvarForces = off [default]
colvars: # scriptingAfterBiases = on [default]
colvars: ----------------------------------------------------------------------
colvars:   Initializing a new collective variable.
colvars:   # name = "dist"
colvars:   Initializing a new "rmsd" component.
colvars:     # componentCoeff = 1 [default]
colvars:     # componentExp = 1 [default]
colvars:     # period = 0 [default]
colvars:     # wrapAround = 0 [default]
colvars:     # scalable = on [default]
colvars:       Initializing atom group "atoms".
colvars:       # indexGroup = "" [default]
colvars:       # psfSegID =  [default]
colvars:       # atomsFile = "" [default]
colvars:       # dummyAtom = ( 0 , 0 , 0 ) [default]
colvars:       # enableForces = on [default]
colvars:       # centerReference = off [default]
colvars:       # rotateReference = off [default]
colvars:       # enableFitGradients = on [default]
colvars:       Atom group "atoms" defined, 10 atoms initialized: total mass = 10, total charge = 0.
colvars:     # refPositions = { ( 4.57751 , 3.14681 , 28.1723 ), ( 6.66922 , 1.58913 , 29.2213 ), ( 5.54105 , 1.09466 , 26.3696 ), ( 9.04416 , 0.386589 , 26.9137 ), ( 7.15222 , -0.753047 , 24.7596 ), ( 4.34837 , -1.38917 , 25.1609 ), ( 6.11893 , -1.66561 , 27.8827 ), ( 4.04694 , 0.565084 , 28.9847 ), ( 3.78428 , -2.01688 , 30.4377 ), ( 3.01459 , -2.09032 , 27.5718 ) }
colvars:     Using reference positions from configuration file to calculate the variable.
colvars:     # refPositionsFile = "" [default]
colvars:     Enabling "centerReference" and "rotateReference", to minimize RMSD before calculating it as a variable: if this is not the desired behavior, disable them explicitly within the "atoms" block.
colvars:     This is a standard minimum RMSD, derivatives of the optimal rotation will not be computed as they cancel out in the gradients.
colvars:   All components initialized.
colvars:   # width = 0.01
colvars:   # lowerBoundary = 0
colvars:   # lowerWallConstant = 0 [default]
colvars:   # upperBoundary = 10
colvars:   # upperWallConstant = 0 [default]
colvars:   # hardLowerBoundary = off [default]
colvars:   # hardUpperBoundary = off [default]
colvars:   # expandBoundaries = on
colvars:   # timeStepFactor = 1 [default]
colvars:   # extendedLagrangian = off [default]
colvars:   # outputValue = on [default]
colvars:   # outputVelocity = off [default]
colvars:   # outputTotalForce = off [default]
colvars:   # outputAppliedForce = off [default]
colvars:   # subtractAppliedForce = off [default]
colvars: ----------------------------------------------------------------------
colvars: Collective variables initialized, 1 in total.
colvars: ----------------------------------------------------------------------
colvars:   Initializing a new "metadynamics" instance.
colvars:   # name = "meta"
colvars:   # colvars = { dist }
colvars:   # outputEnergy = on
colvars:   # hillWeight = 0.01
colvars:   # newHillFrequency = 1000
colvars:   # hillWidth = 20
colvars:   Half-widths of the Gaussian hills (sigma's):
colvars:   dist: 0.1
colvars:   # multipleReplicas = off [default]
colvars:   # useGrids = on [default]
colvars:   # gridsUpdateFrequency = 1000 [default]
colvars:   # rebinGrids = off [default]
colvars:   Metadynamics bias "meta": Will expand grids when the colvar "dist" approaches its boundaries.
colvars:   # keepHills = off [default]
colvars:   # writeFreeEnergyFile = on
colvars:   Option "saveFreeEnergyFile" is deprecated, please use "keepFreeEnergyFiles" instead.
colvars:   # keepFreeEnergyFiles = on [default]
colvars:   # writeHillsTrajectory = off [default]
colvars:   # wellTempered = on
colvars:   # biasTemperature = 1500
colvars:   Well-tempered metadynamics is used.
colvars:   The bias temperature is 1500.
colvars:   # ebMeta = off [default]
colvars: ----------------------------------------------------------------------
colvars: Collective variables biases initialized, 1 in total.
colvars: ----------------------------------------------------------------------
colvars: Collective variables module (re)initialized.
colvars: ----------------------------------------------------------------------
colvars: Re-initialized atom group dist:0/0. 10 atoms: total mass = 10.
colvars: The restart output state file will be "rest.colvars.state".
colvars: The final output state file will be "out.colvars.state".
colvars: Writing to colvar trajectory file "out.colvars.traj".
colvars: Re-initialized atom group dist:0/0. 10 atoms: total mass = 516.56.
colvars: Metadynamics bias "meta": new lower boundary for colvar "dist", at -0.45.
Step Temp PotEng TotEng Press Volume Lx Ly Lz Density TotEng Enthalpy
0    438.18137   -129103.79   -127291.38   -243.69484     606453.9    84.644601    84.644601    84.644601    3.4500947   -127291.38   -127383.63
colvars: Metadynamics bias "meta": new lower boundary for colvar "dist", at -0.46.
colvars: Metadynamics bias "meta": new lower boundary for colvar "dist", at -0.47.
colvars: Metadynamics bias "meta": new lower boundary for colvar "dist", at -0.48.
colvars: Metadynamics bias "meta": new lower boundary for colvar "dist", at -0.49.
colvars: Metadynamics bias "meta": new lower boundary for colvar "dist", at -0.5.
colvars: Metadynamics bias "meta": new lower boundary for colvar "dist", at -0.51.
colvars: Metadynamics bias "meta": new lower boundary for colvar "dist", at -0.52.
colvars: Synchronizing (emptying the buffer of) trajectory file "out.colvars.traj".
colvars: Writing the state file "rest.colvars.state".
colvars: Synchronizing (emptying the buffer of) trajectory file "out.colvars.traj".
colvars: Writing the state file "rest.colvars.state".
colvars: Metadynamics bias "meta": new lower boundary for colvar "dist", at -0.53.
colvars: Metadynamics bias "meta": new lower boundary for colvar "dist", at -0.54.
colvars: Synchronizing (emptying the buffer of) trajectory file "out.colvars.traj".
colvars: Writing the state file "rest.colvars.state".
colvars: Synchronizing (emptying the buffer of) trajectory file "out.colvars.traj".
colvars: Writing the state file "rest.colvars.state".
colvars: Synchronizing (emptying the buffer of) trajectory file "out.colvars.traj".
colvars: Writing the state file "rest.colvars.state".
colvars: Synchronizing (emptying the buffer of) trajectory file "out.colvars.traj".
colvars: Writing the state file "rest.colvars.state".
colvars: Synchronizing (emptying the buffer of) trajectory file "out.colvars.traj".
colvars: Writing the state file "rest.colvars.state".
colvars: Synchronizing (emptying the buffer of) trajectory file "out.colvars.traj".
colvars: Writing the state file "rest.colvars.state".
colvars: Synchronizing (emptying the buffer of) trajectory file "out.colvars.traj".
colvars: Writing the state file "rest.colvars.state".
colvars: Synchronizing (emptying the buffer of) trajectory file "out.colvars.traj".
colvars: Writing the state file "rest.colvars.state".
colvars: Metadynamics bias "meta": new lower boundary for colvar "dist", at -0.55.
colvars: Synchronizing (emptying the buffer of) trajectory file "out.colvars.traj".
colvars: Writing the state file "rest.colvars.state".
colvars: Synchronizing (emptying the buffer of) trajectory file "out.colvars.traj".
colvars: Writing the state file "rest.colvars.state".
colvars: Synchronizing (emptying the buffer of) trajectory file "out.colvars.traj".
colvars: Writing the state file "rest.colvars.state".
colvars: Synchronizing (emptying the buffer of) trajectory file "out.colvars.traj".
colvars: Writing the state file "rest.colvars.state".
colvars: Synchronizing (emptying the buffer of) trajectory file "out.colvars.traj".
colvars: Writing the state file "rest.colvars.state".
colvars: Synchronizing (emptying the buffer of) trajectory file "out.colvars.traj".
colvars: Writing the state file "rest.colvars.state".
colvars: Synchronizing (emptying the buffer of) trajectory file "out.colvars.traj".
colvars: Writing the state file "rest.colvars.state".
colvars: Synchronizing (emptying the buffer of) trajectory file "out.colvars.traj".
colvars: Writing the state file "rest.colvars.state".
colvars: Synchronizing (emptying the buffer of) trajectory file "out.colvars.traj".
colvars: Writing the state file "rest.colvars.state".
colvars: Synchronizing (emptying the buffer of) trajectory file "out.colvars.traj".
colvars: Writing the state file "rest.colvars.state".
colvars: Synchronizing (emptying the buffer of) trajectory file "out.colvars.traj".
colvars: Writing the state file "rest.colvars.state".
colvars: Synchronizing (emptying the buffer of) trajectory file "out.colvars.traj".
colvars: Writing the state file "rest.colvars.state".
colvars: Synchronizing (emptying the buffer of) trajectory file "out.colvars.traj".
colvars: Writing the state file "rest.colvars.state".
colvars: Synchronizing (emptying the buffer of) trajectory file "out.colvars.traj".
colvars: Writing the state file "rest.colvars.state".
colvars: Synchronizing (emptying the buffer of) trajectory file "out.colvars.traj".
colvars: Writing the state file "rest.colvars.state".
colvars: Synchronizing (emptying the buffer of) trajectory file "out.colvars.traj".
colvars: Writing the state file "rest.colvars.state".
colvars: Synchronizing (emptying the buffer of) trajectory file "out.colvars.traj".
colvars: Writing the state file "rest.colvars.state".
colvars: Synchronizing (emptying the buffer of) trajectory file "out.colvars.traj".
colvars: Writing the state file "rest.colvars.state".
colvars: Synchronizing (emptying the buffer of) trajectory file "out.colvars.traj".
colvars: Writing the state file "rest.colvars.state".
colvars: Synchronizing (emptying the buffer of) trajectory file "out.colvars.traj".
colvars: Writing the state file "rest.colvars.state".
colvars: Synchronizing (emptying the buffer of) trajectory file "out.colvars.traj".
colvars: Writing the state file "rest.colvars.state".
colvars: Synchronizing (emptying the buffer of) trajectory file "out.colvars.traj".
colvars: Writing the state file "rest.colvars.state".
colvars: Synchronizing (emptying the buffer of) trajectory file "out.colvars.traj".
colvars: Writing the state file "rest.colvars.state".
colvars: Synchronizing (emptying the buffer of) trajectory file "out.colvars.traj".
colvars: Writing the state file "rest.colvars.state".
colvars: Synchronizing (emptying the buffer of) trajectory file "out.colvars.traj".
colvars: Writing the state file "rest.colvars.state".
colvars: Synchronizing (emptying the buffer of) trajectory file "out.colvars.traj".
colvars: Writing the state file "rest.colvars.state".
colvars: Synchronizing (emptying the buffer of) trajectory file "out.colvars.traj".
colvars: Writing the state file "rest.colvars.state".
colvars: Synchronizing (emptying the buffer of) trajectory file "out.colvars.traj".
colvars: Writing the state file "rest.colvars.state".
colvars: Synchronizing (emptying the buffer of) trajectory file "out.colvars.traj".
colvars: Writing the state file "rest.colvars.state".
colvars: Synchronizing (emptying the buffer of) trajectory file "out.colvars.traj".
colvars: Writing the state file "rest.colvars.state".
colvars: Synchronizing (emptying the buffer of) trajectory file "out.colvars.traj".
colvars: Writing the state file "rest.colvars.state".
colvars: Synchronizing (emptying the buffer of) trajectory file "out.colvars.traj".
colvars: Writing the state file "rest.colvars.state".
colvars: Synchronizing (emptying the buffer of) trajectory file "out.colvars.traj".
colvars: Writing the state file "rest.colvars.state".
colvars: Synchronizing (emptying the buffer of) trajectory file "out.colvars.traj".
colvars: Writing the state file "rest.colvars.state".
colvars: Synchronizing (emptying the buffer of) trajectory file "out.colvars.traj".
colvars: Writing the state file "rest.colvars.state".
colvars: Synchronizing (emptying the buffer of) trajectory file "out.colvars.traj".
colvars: Writing the state file "rest.colvars.state".
colvars: Synchronizing (emptying the buffer of) trajectory file "out.colvars.traj".
colvars: Writing the state file "rest.colvars.state".
colvars: Synchronizing (emptying the buffer of) trajectory file "out.colvars.traj".
colvars: Writing the state file "rest.colvars.state".
colvars: Synchronizing (emptying the buffer of) trajectory file "out.colvars.traj".
colvars: Writing the state file "rest.colvars.state".
colvars: Synchronizing (emptying the buffer of) trajectory file "out.colvars.traj".
colvars: Writing the state file "rest.colvars.state".
colvars: Synchronizing (emptying the buffer of) trajectory file "out.colvars.traj".
colvars: Writing the state file "rest.colvars.state".
colvars: Synchronizing (emptying the buffer of) trajectory file "out.colvars.traj".
colvars: Writing the state file "rest.colvars.state".
colvars: Synchronizing (emptying the buffer of) trajectory file "out.colvars.traj".
colvars: Writing the state file "rest.colvars.state".
colvars: Synchronizing (emptying the buffer of) trajectory file "out.colvars.traj".
colvars: Writing the state file "rest.colvars.state".
colvars: Synchronizing (emptying the buffer of) trajectory file "out.colvars.traj".
colvars: Writing the state file "rest.colvars.state".
colvars: Synchronizing (emptying the buffer of) trajectory file "out.colvars.traj".
colvars: Writing the state file "rest.colvars.state".
colvars: Synchronizing (emptying the buffer of) trajectory file "out.colvars.traj".
colvars: Writing the state file "rest.colvars.state".
colvars: Synchronizing (emptying the buffer of) trajectory file "out.colvars.traj".
colvars: Writing the state file "rest.colvars.state".
colvars: Synchronizing (emptying the buffer of) trajectory file "out.colvars.traj".
colvars: Writing the state file "rest.colvars.state".
colvars: Synchronizing (emptying the buffer of) trajectory file "out.colvars.traj".
colvars: Writing the state file "rest.colvars.state".
colvars: Synchronizing (emptying the buffer of) trajectory file "out.colvars.traj".
colvars: Writing the state file "rest.colvars.state".
colvars: Synchronizing (emptying the buffer of) trajectory file "out.colvars.traj".
colvars: Writing the state file "rest.colvars.state".
colvars: Synchronizing (emptying the buffer of) trajectory file "out.colvars.traj".
colvars: Writing the state file "rest.colvars.state".
colvars: Synchronizing (emptying the buffer of) trajectory file "out.colvars.traj".
colvars: Writing the state file "rest.colvars.state".
colvars: Synchronizing (emptying the buffer of) trajectory file "out.colvars.traj".
colvars: Writing the state file "rest.colvars.state".
colvars: Synchronizing (emptying the buffer of) trajectory file "out.colvars.traj".
colvars: Writing the state file "rest.colvars.state".
colvars: Synchronizing (emptying the buffer of) trajectory file "out.colvars.traj".
colvars: Writing the state file "rest.colvars.state".
colvars: Synchronizing (emptying the buffer of) trajectory file "out.colvars.traj".
colvars: Writing the state file "rest.colvars.state".
colvars: Synchronizing (emptying the buffer of) trajectory file "out.colvars.traj".
colvars: Writing the state file "rest.colvars.state".
colvars: Synchronizing (emptying the buffer of) trajectory file "out.colvars.traj".
colvars: Writing the state file "rest.colvars.state".
colvars: Synchronizing (emptying the buffer of) trajectory file "out.colvars.traj".
colvars: Writing the state file "rest.colvars.state".
colvars: Synchronizing (emptying the buffer of) trajectory file "out.colvars.traj".
colvars: Writing the state file "rest.colvars.state".
colvars: Synchronizing (emptying the buffer of) trajectory file "out.colvars.traj".
colvars: Writing the state file "rest.colvars.state".
colvars: Synchronizing (emptying the buffer of) trajectory file "out.colvars.traj".
colvars: Writing the state file "rest.colvars.state".
colvars: Synchronizing (emptying the buffer of) trajectory file "out.colvars.traj".
colvars: Writing the state file "rest.colvars.state".
colvars: Synchronizing (emptying the buffer of) trajectory file "out.colvars.traj".
colvars: Writing the state file "rest.colvars.state".
colvars: Synchronizing (emptying the buffer of) trajectory file "out.colvars.traj".
colvars: Writing the state file "rest.colvars.state".
colvars: Synchronizing (emptying the buffer of) trajectory file "out.colvars.traj".
colvars: Writing the state file "rest.colvars.state".
colvars: Synchronizing (emptying the buffer of) trajectory file "out.colvars.traj".
colvars: Writing the state file "rest.colvars.state".
colvars: Synchronizing (emptying the buffer of) trajectory file "out.colvars.traj".
colvars: Writing the state file "rest.colvars.state".
colvars: Synchronizing (emptying the buffer of) trajectory file "out.colvars.traj".
colvars: Writing the state file "rest.colvars.state".
colvars: Synchronizing (emptying the buffer of) trajectory file "out.colvars.traj".
colvars: Writing the state file "rest.colvars.state".
colvars: Synchronizing (emptying the buffer of) trajectory file "out.colvars.traj".
colvars: Writing the state file "rest.colvars.state".
colvars: Synchronizing (emptying the buffer of) trajectory file "out.colvars.traj".
colvars: Writing the state file "rest.colvars.state".
colvars: Synchronizing (emptying the buffer of) trajectory file "out.colvars.traj".
colvars: Writing the state file "rest.colvars.state".
colvars: Synchronizing (emptying the buffer of) trajectory file "out.colvars.traj".
colvars: Writing the state file "rest.colvars.state".
colvars: Synchronizing (emptying the buffer of) trajectory file "out.colvars.traj".
colvars: Writing the state file "rest.colvars.state".
colvars: Synchronizing (emptying the buffer of) trajectory file "out.colvars.traj".
colvars: Writing the state file "rest.colvars.state".
colvars: Synchronizing (emptying the buffer of) trajectory file "out.colvars.traj".
colvars: Writing the state file "rest.colvars.state".
colvars: Synchronizing (emptying the buffer of) trajectory file "out.colvars.traj".
colvars: Writing the state file "rest.colvars.state".
colvars: Synchronizing (emptying the buffer of) trajectory file "out.colvars.traj".
colvars: Writing the state file "rest.colvars.state".
colvars: Synchronizing (emptying the buffer of) trajectory file "out.colvars.traj".
colvars: Writing the state file "rest.colvars.state".
colvars: Synchronizing (emptying the buffer of) trajectory file "out.colvars.traj".
colvars: Writing the state file "rest.colvars.state".
colvars: Synchronizing (emptying the buffer of) trajectory file "out.colvars.traj".
colvars: Writing the state file "rest.colvars.state".
colvars: Synchronizing (emptying the buffer of) trajectory file "out.colvars.traj".
colvars: Writing the state file "rest.colvars.state".
colvars: Synchronizing (emptying the buffer of) trajectory file "out.colvars.traj".
colvars: Writing the state file "rest.colvars.state".
colvars: Synchronizing (emptying the buffer of) trajectory file "out.colvars.traj".
colvars: Writing the state file "rest.colvars.state".
colvars: Synchronizing (emptying the buffer of) trajectory file "out.colvars.traj".
colvars: Writing the state file "rest.colvars.state".
colvars: Synchronizing (emptying the buffer of) trajectory file "out.colvars.traj".
colvars: Writing the state file "rest.colvars.state".
colvars: Synchronizing (emptying the buffer of) trajectory file "out.colvars.traj".
colvars: Writing the state file "rest.colvars.state".
Loop time of 32431.8 on 84 procs for 10000000 steps with 32000 atoms

colvars: Saving collective variables state to "out.colvars.state".
colvars: Resetting the Collective Variables Module.

Please see the log.cite file for references relevant to this simulation
