units           metal
boundary        p p p
atom_style      atomic
atom_modify     map array sort 10000 2.0
read_data         T300.dat
  orthogonal box = (-6.02527 -6.02527 -6.02527) to (78.4253 78.4253 78.4253)
  reading atoms ...
  32000 atoms
pair_style      eam/fs
pair_coeff      * * Al90Sm10_MendelevM_2014.eam.fs  Al Sm
mass            1  26.98	#Al
mass            2  150.36	#Sm
neighbor            2.0 bin
neigh_modify    delay 5
timestep 0.002
thermo 1000

fix             1 all npt temp 300 300 0.02 iso 0 0 0.2
thermo_style custom step temp pe etotal press vol lx ly lz density etotal enthalpy
run 100000
  1 neighbor list requests
  update every 1 steps, delay 5 steps, check yes
Step Temp PotEng TotEng Press Volume Lx Ly Lz Density TotEng Enthalpy
0            0   -129749.43   -129749.43   -2732.0852    602292.28     84.45054     84.45054     84.45054    3.4739336   -129749.43   -130776.48
Averages over the last 51 of 101 rows, steps 50000 to 100000:
Temp PotEng TotEng Press Volume Lx Ly Lz Density TotEng Enthalpy
300.108 -129750 -128508 -20.0832 601941 84.4341 84.4341 84.4341 3.47596 -128508 -128516
Loop time of 275.72 on 84 procs for 100000 steps with 32000 atoms

unfix 1

reset_timestep 0

fix             1 all nvt temp 300 300 0.1

shell "rm -f out*.colvars.*"
fix		2 all colvars configfile

thermo 10000

dump            1 all custom 50000 dump.300 id type x y z
dump_modify 1 sort id

run 10000000
colvars: Creating proxy instance
colvars: ----------------------------------------------------------------------
colvars: Initializing the collective variables module, version 2016-10-21.
colvars: Please cite Fiorin et al, Mol Phys 2013:
colvars:  http://dx.doi.org/10.1080/00268976.2013.813594
colvars: in any publication based on this calculation.
colvars: SMP parallelism is available.
colvars: Using LAMMPS interface, version 2016-10-05.
colvars: ----------------------------------------------------------------------
colvars: Reading new configuration from file "configfile":
colvars: # indexFile = "" [default]
colvars: # smp = on [default]
colvars: # analysis = off [default]
colvars: # colvarsTrajFrequency = 100
colvars: # colvarsRestartFrequency = 100000
colvars: # colvarsTrajAppend = off [default]
colvars: # scriptedColvarForces = off [default]
colvars: # scriptingAfterBiases = on [default]
colvars: ----------------------------------------------------------------------
colvars:   Initializing a new collective variable.
colvars:   # name = "dist"
colvars:   Initializing a new "rmsd" component.
colvars:     # componentCoeff = 1 [default]
colvars:     # componentExp = 1 [default]
colvars:     # period = 0 [default]
colvars:     # wrapAround = 0 [default]
colvars:     # scalable = on [default]
colvars:       Initializing atom group "atoms".
colvars:       # indexGroup = "" [default]
colvars:       # psfSegID =  [default]
colvars:       # atomsFile = "" [default]
colvars:       # dummyAtom = ( 0 , 0 , 0 ) [default]
colvars:       # enableForces = on [default]
colvars:       # centerReference = off [default]
colvars:       # rotateReference = off [default]
colvars:       # enableFitGradients = on [default]
colvars:       Atom group "atoms" defined, 20 atoms initialized: total mass = 20, total charge = 0.
colvars:     # refPositions = { ( 24.7399 , 4.42945 , -4.16031 ), ( 24.7823 , 9.29828 , -4.31863 ), ( 25.7563 , 6.55507 , -5.77382 ), ( 26.2257 , 7.01296 , -3.12185 ), ( 27.5389 , 4.84351 , -4.34427 ), ( 28.3409 , 7.44822 , -5.06386 ), ( 30.1709 , 9.30715 , -3.9089 ), ( 30.226 , 5.4915 , -1.75945 ), ( 30.3884 , 5.53542 , -4.73478 ), ( 32.2378 , 6.36793 , -0.382733 ), ( 32.3164 , 7.03585 , -3.19465 ), ( 33.3122 , 1.39363 , 0.500789 ), ( 34.4273 , 2.56411 , -1.85685 ), ( 33.564 , 4.17163 , 0.455008 ), ( 34.3834 , 5.48331 , -1.93444 ), ( 34.395 , 8.1272 , -1.43016 ), ( 34.6345 , 10.2369 , 0.0472727 ), ( 35.9104 , 12.6228 , -1.44037 ), ( 36.6762 , 11.598 , -4.8021 ), ( 36.9357 , 6.83714 , -1.69536 ) }
colvars:     Using reference positions from configuration file to calculate the variable.
colvars:     # refPositionsFile = "" [default]
colvars:     Enabling "centerReference" and "rotateReference", to minimize RMSD before calculating it as a variable: if this is not the desired behavior, disable them explicitly within the "atoms" block.
colvars:     This is a standard minimum RMSD, derivatives of the optimal rotation will not be computed as they cancel out in the gradients.
colvars:   All components initialized.
colvars:   # width = 0.01
colvars:   # lowerBoundary = 0
colvars:   # lowerWallConstant = 0 [default]
colvars:   # upperBoundary = 10
colvars:   # upperWallConstant = 0 [default]
colvars:   # hardLowerBoundary = off [default]
colvars:   # hardUpperBoundary = off [default]
colvars:   # expandBoundaries = on
colvars:   # timeStepFactor = 1 [default]
colvars:   # extendedLagrangian = off [default]
colvars:   # outputValue = on [default]
colvars:   # outputVelocity = off [default]
colvars:   # outputTotalForce = off [default]
colvars:   # outputAppliedForce = off [default]
colvars:   # subtractAppliedForce = off [default]
colvars: ----------------------------------------------------------------------
colvars: Collective variables initialized, 1 in total.
colvars: ----------------------------------------------------------------------
colvars:   Initializing a new "metadynamics" instance.
colvars:   # name = "meta"
colvars:   # colvars = { dist }
colvars:   # outputEnergy = on
colvars:   # hillWeight = 0.01
colvars:   # newHillFrequency = 1000
colvars:   # hillWidth = 20
colvars:   Half-widths of the Gaussian hills (sigma's):
colvars:   dist: 0.1
colvars:   # multipleReplicas = off [default]
colvars:   # useGrids = on [default]
colvars:   # gridsUpdateFrequency = 1000 [default]
colvars:   # rebinGrids = off [default]
colvars:   Metadynamics bias "meta": Will expand grids when the colvar "dist" approaches its boundaries.
colvars:   # keepHills = off [default]
colvars:   # writeFreeEnergyFile = on
colvars:   Option "saveFreeEnergyFile" is deprecated, please use "keepFreeEnergyFiles" instead.
colvars:   # keepFreeEnergyFiles = on [default]
colvars:   # writeHillsTrajectory = off [default]
colvars:   # wellTempered = on
colvars:   # biasTemperature = 1500
colvars:   Well-tempered metadynamics is used.
colvars:   The bias temperature is 1500.
colvars:   # ebMeta = off [default]
colvars: ----------------------------------------------------------------------
colvars: Collective variables biases initialized, 1 in total.
colvars: ----------------------------------------------------------------------
colvars: Collective variables module (re)initialized.
colvars: ----------------------------------------------------------------------
colvars: Re-initialized atom group dist:0/0. 20 atoms: total mass = 20.
colvars: The restart output state file will be "rest.colvars.state".
colvars: The final output state file will be "out.colvars.state".
colvars: Writing to colvar trajectory file "out.colvars.traj".
colvars: Re-initialized atom group dist:0/0. 20 atoms: total mass = 539.6.
colvars: Metadynamics bias "meta": new lower boundary for colvar "dist", at -0.28.
Step Temp PotEng TotEng Press Volume Lx Ly Lz Density TotEng Enthalpy
0     300.9807   -129755.98   -128511.06    8.9934665    601857.16    84.430198    84.430198    84.430198    3.4764451   -128511.06   -128507.68
colvars: Metadynamics bias "meta": new lower boundary for colvar "dist", at -0.29.
colvars: Metadynamics bias "meta": new lower boundary for colvar "dist", at -0.3.
colvars: Metadynamics bias "meta": new lower boundary for colvar "dist", at -0.31.
colvars: Metadynamics bias "meta": new lower boundary for colvar "dist", at -0.32.
colvars: Metadynamics bias "meta": new lower boundary for colvar "dist", at -0.33.
colvars: Metadynamics bias "meta": new lower boundary for colvar "dist", at -0.34.
colvars: Metadynamics bias "meta": new lower boundary for colvar "dist", at -0.35.
colvars: Metadynamics bias "meta": new lower boundary for colvar "dist", at -0.36.
colvars: Metadynamics bias "meta": new lower boundary for colvar "dist", at -0.37.
colvars: Metadynamics bias "meta": new lower boundary for colvar "dist", at -0.38.
colvars: Metadynamics bias "meta": new lower boundary for colvar "dist", at -0.39.
colvars: Metadynamics bias "meta": new lower boundary for colvar "dist", at -0.4.
colvars: Metadynamics bias "meta": new lower boundary for colvar "dist", at -0.41.
colvars: Metadynamics bias "meta": new lower boundary for colvar "dist", at -0.42.
colvars: Metadynamics bias "meta": new lower boundary for colvar "dist", at -0.43.
colvars: Metadynamics bias "meta": new lower boundary for colvar "dist", at -0.44.
colvars: Synchronizing (emptying the buffer of) trajectory file "out.colvars.traj".
colvars: Writing the state file "rest.colvars.state".
colvars: Synchronizing (emptying the buffer of) trajectory file "out.colvars.traj".
colvars: Writing the state file "rest.colvars.state".
colvars: Metadynamics bias "meta": new lower boundary for colvar "dist", at -0.45.
colvars: Synchronizing (emptying the buffer of) trajectory file "out.colvars.traj".
colvars: Writing the state file "rest.colvars.state".
colvars: Synchronizing (emptying the buffer of) trajectory file "out.colvars.traj".
colvars: Writing the state file "rest.colvars.state".
colvars: Synchronizing (emptying the buffer of) trajectory file "out.colvars.traj".
colvars: Writing the state file "rest.colvars.state".
colvars: Synchronizing (emptying the buffer of) trajectory file "out.colvars.traj".
colvars: Writing the state file "rest.colvars.state".
colvars: Synchronizing (emptying the buffer of) trajectory file "out.colvars.traj".
colvars: Writing the state file "rest.colvars.state".
colvars: Synchronizing (emptying the buffer of) trajectory file "out.colvars.traj".
colvars: Writing the state file "rest.colvars.state".
colvars: Synchronizing (emptying the buffer of) trajectory file "out.colvars.traj".
colvars: Writing the state file "rest.colvars.state".
colvars: Synchronizing (emptying the buffer of) trajectory file "out.colvars.traj".
colvars: Writing the state file "rest.colvars.state".
colvars: Synchronizing (emptying the buffer of) trajectory file "out.colvars.traj".
colvars: Writing the state file "rest.colvars.state".
colvars: Synchronizing (emptying the buffer of) trajectory file "out.colvars.traj".
colvars: Writing the state file "rest.colvars.state".
colvars: Synchronizing (emptying the buffer of) trajectory file "out.colvars.traj".
colvars: Writing the state file "rest.colvars.state".
colvars: Synchronizing (emptying the buffer of) trajectory file "out.colvars.traj".
colvars: Writing the state file "rest.colvars.state".
colvars: Synchronizing (emptying the buffer of) trajectory file "out.colvars.traj".
colvars: Writing the state file "rest.colvars.state".
colvars: Synchronizing (emptying the buffer of) trajectory file "out.colvars.traj".
colvars: Writing the state file "rest.colvars.state".
colvars: Synchronizing (emptying the buffer of) trajectory file "out.colvars.traj".
colvars: Writing the state file "rest.colvars.state".
colvars: Synchronizing (emptying the buffer of) trajectory file "out.colvars.traj".
colvars: Writing the state file "rest.colvars.state".
colvars: Synchronizing (emptying the buffer of) trajectory file "out.colvars.traj".
colvars: Writing the state file "rest.colvars.state".
colvars: Synchronizing (emptying the buffer of) trajectory file "out.colvars.traj".
colvars: Writing the state file "rest.colvars.state".
colvars: Synchronizing (emptying the buffer of) trajectory file "out.colvars.traj".
colvars: Writing the state file "rest.colvars.state".
colvars: Synchronizing (emptying the buffer of) trajectory file "out.colvars.traj".
colvars: Writing the state file "rest.colvars.state".
colvars: Synchronizing (emptying the buffer of) trajectory file "out.colvars.traj".
colvars: Writing the state file "rest.colvars.state".
colvars: Synchronizing (emptying the buffer of) trajectory file "out.colvars.traj".
colvars: Writing the state file "rest.colvars.state".
colvars: Synchronizing (emptying the buffer of) trajectory file "out.colvars.traj".
colvars: Writing the state file "rest.colvars.state".
colvars: Synchronizing (emptying the buffer of) trajectory file "out.colvars.traj".
colvars: Writing the state file "rest.colvars.state".
colvars: Synchronizing (emptying the buffer of) trajectory file "out.colvars.traj".
colvars: Writing the state file "rest.colvars.state".
colvars: Synchronizing (emptying the buffer of) trajectory file "out.colvars.traj".
colvars: Writing the state file "rest.colvars.state".
colvars: Synchronizing (emptying the buffer of) trajectory file "out.colvars.traj".
colvars: Writing the state file "rest.colvars.state".
colvars: Synchronizing (emptying the buffer of) trajectory file "out.colvars.traj".
colvars: Writing the state file "rest.colvars.state".
colvars: Synchronizing (emptying the buffer of) trajectory file "out.colvars.traj".
colvars: Writing the state file "rest.colvars.state".
colvars: Synchronizing (emptying the buffer of) trajectory file "out.colvars.traj".
colvars: Writing the state file "rest.colvars.state".
colvars: Synchronizing (emptying the buffer of) trajectory file "out.colvars.traj".
colvars: Writing the state file "rest.colvars.state".
colvars: Synchronizing (emptying the buffer of) trajectory file "out.colvars.traj".
colvars: Writing the state file "rest.colvars.state".
colvars: Synchronizing (emptying the buffer of) trajectory file "out.colvars.traj".
colvars: Writing the state file "rest.colvars.state".
colvars: Synchronizing (emptying the buffer of) trajectory file "out.colvars.traj".
colvars: Writing the state file "rest.colvars.state".
colvars: Synchronizing (emptying the buffer of) trajectory file "out.colvars.traj".
colvars: Writing the state file "rest.colvars.state".
colvars: Synchronizing (emptying the buffer of) trajectory file "out.colvars.traj".
colvars: Writing the state file "rest.colvars.state".
colvars: Synchronizing (emptying the buffer of) trajectory file "out.colvars.traj".
colvars: Writing the state file "rest.colvars.state".
colvars: Synchronizing (emptying the buffer of) trajectory file "out.colvars.traj".
colvars: Writing the state file "rest.colvars.state".
colvars: Synchronizing (emptying the buffer of) trajectory file "out.colvars.traj".
colvars: Writing the state file "rest.colvars.state".
colvars: Synchronizing (emptying the buffer of) trajectory file "out.colvars.traj".
colvars: Writing the state file "rest.colvars.state".
colvars: Synchronizing (emptying the buffer of) trajectory file "out.colvars.traj".
colvars: Writing the state file "rest.colvars.state".
colvars: Synchronizing (emptying the buffer of) trajectory file "out.colvars.traj".
colvars: Writing the state file "rest.colvars.state".
colvars: Synchronizing (emptying the buffer of) trajectory file "out.colvars.traj".
colvars: Writing the state file "rest.colvars.state".
colvars: Synchronizing (emptying the buffer of) trajectory file "out.colvars.traj".
colvars: Writing the state file "rest.colvars.state".
colvars: Synchronizing (emptying the buffer of) trajectory file "out.colvars.traj".
colvars: Writing the state file "rest.colvars.state".
colvars: Synchronizing (emptying the buffer of) trajectory file "out.colvars.traj".
colvars: Writing the state file "rest.colvars.state".
colvars: Synchronizing (emptying the buffer of) trajectory file "out.colvars.traj".
colvars: Writing the state file "rest.colvars.state".
colvars: Synchronizing (emptying the buffer of) trajectory file "out.colvars.traj".
colvars: Writing the state file "rest.colvars.state".
colvars: Synchronizing (emptying the buffer of) trajectory file "out.colvars.traj".
colvars: Writing the state file "rest.colvars.state".
colvars: Synchronizing (emptying the buffer of) trajectory file "out.colvars.traj".
colvars: Writing the state file "rest.colvars.state".
colvars: Synchronizing (emptying the buffer of) trajectory file "out.colvars.traj".
colvars: Writing the state file "rest.colvars.state".
colvars: Synchronizing (emptying the buffer of) trajectory file "out.colvars.traj".
colvars: Writing the state file "rest.colvars.state".
colvars: Synchronizing (emptying the buffer of) trajectory file "out.colvars.traj".
colvars: Writing the state file "rest.colvars.state".
colvars: Synchronizing (emptying the buffer of) trajectory file "out.colvars.traj".
colvars: Writing the state file "rest.colvars.state".
colvars: Synchronizing (emptying the buffer of) trajectory file "out.colvars.traj".
colvars: Writing the state file "rest.colvars.state".
colvars: Synchronizing (emptying the buffer of) trajectory file "out.colvars.traj".
colvars: Writing the state file "rest.colvars.state".
colvars: Synchronizing (emptying the buffer of) trajectory file "out.colvars.traj".
colvars: Writing the state file "rest.colvars.state".
colvars: Synchronizing (emptying the buffer of) trajectory file "out.colvars.traj".
colvars: Writing the state file "rest.colvars.state".
colvars: Synchronizing (emptying the buffer of) trajectory file "out.colvars.traj".
colvars: Writing the state file "rest.colvars.state".
colvars: Synchronizing (emptying the buffer of) trajectory file "out.colvars.traj".
colvars: Writing the state file "rest.colvars.state".
colvars: Synchronizing (emptying the buffer of) trajectory file "out.colvars.traj".
colvars: Writing the state file "rest.colvars.state".
colvars: Synchronizing (emptying the buffer of) trajectory file "out.colvars.traj".
colvars: Writing the state file "rest.colvars.state".
colvars: Synchronizing (emptying the buffer of) trajectory file "out.colvars.traj".
colvars: Writing the state file "rest.colvars.state".
colvars: Synchronizing (emptying the buffer of) trajectory file "out.colvars.traj".
colvars: Writing the state file "rest.colvars.state".
colvars: Synchronizing (emptying the buffer of) trajectory file "out.colvars.traj".
colvars: Writing the state file "rest.colvars.state".
colvars: Synchronizing (emptying the buffer of) trajectory file "out.colvars.traj".
colvars: Writing the state file "rest.colvars.state".
colvars: Synchronizing (emptying the buffer of) trajectory file "out.colvars.traj".
colvars: Writing the state file "rest.colvars.state".
colvars: Synchronizing (emptying the buffer of) trajectory file "out.colvars.traj".
colvars: Writing the state file "rest.colvars.state".
colvars: Synchronizing (emptying the buffer of) trajectory file "out.colvars.traj".
colvars: Writing the state file "rest.colvars.state".
colvars: Synchronizing (emptying the buffer of) trajectory file "out.colvars.traj".
colvars: Writing the state file "rest.colvars.state".
colvars: Synchronizing (emptying the buffer of) trajectory file "out.colvars.traj".
colvars: Writing the state file "rest.colvars.state".
colvars: Synchronizing (emptying the buffer of) trajectory file "out.colvars.traj".
colvars: Writing the state file "rest.colvars.state".
colvars: Synchronizing (emptying the buffer of) trajectory file "out.colvars.traj".
colvars: Writing the state file "rest.colvars.state".
colvars: Synchronizing (emptying the buffer of) trajectory file "out.colvars.traj".
colvars: Writing the state file "rest.colvars.state".
colvars: Synchronizing (emptying the buffer of) trajectory file "out.colvars.traj".
colvars: Writing the state file "rest.colvars.state".
colvars: Synchronizing (emptying the buffer of) trajectory file "out.colvars.traj".
colvars: Writing the state file "rest.colvars.state".
colvars: Synchronizing (emptying the buffer of) trajectory file "out.colvars.traj".
colvars: Writing the state file "rest.colvars.state".
colvars: Synchronizing (emptying the buffer of) trajectory file "out.colvars.traj".
colvars: Writing the state file "rest.colvars.state".
colvars: Synchronizing (emptying the buffer of) trajectory file "out.colvars.traj".
colvars: Writing the state file "rest.colvars.state".
colvars: Synchronizing (emptying the buffer of) trajectory file "out.colvars.traj".
colvars: Writing the state file "rest.colvars.state".
colvars: Synchronizing (emptying the buffer of) trajectory file "out.colvars.traj".
colvars: Writing the state file "rest.colvars.state".
colvars: Synchronizing (emptying the buffer of) trajectory file "out.colvars.traj".
colvars: Writing the state file "rest.colvars.state".
colvars: Synchronizing (emptying the buffer of) trajectory file "out.colvars.traj".
colvars: Writing the state file "rest.colvars.state".
colvars: Synchronizing (emptying the buffer of) trajectory file "out.colvars.traj".
colvars: Writing the state file "rest.colvars.state".
colvars: Synchronizing (emptying the buffer of) trajectory file "out.colvars.traj".
colvars: Writing the state file "rest.colvars.state".
colvars: Synchronizing (emptying the buffer of) trajectory file "out.colvars.traj".
colvars: Writing the state file "rest.colvars.state".
colvars: Synchronizing (emptying the buffer of) trajectory file "out.colvars.traj".
colvars: Writing the state file "rest.colvars.state".
colvars: Synchronizing (emptying the buffer of) trajectory file "out.colvars.traj".
colvars: Writing the state file "rest.colvars.state".
colvars: Synchronizing (emptying the buffer of) trajectory file "out.colvars.traj".
colvars: Writing the state file "rest.colvars.state".
colvars: Synchronizing (emptying the buffer of) trajectory file "out.colvars.traj".
colvars: Writing the state file "rest.colvars.state".
colvars: Synchronizing (emptying the buffer of) trajectory file "out.colvars.traj".
colvars: Writing the state file "rest.colvars.state".
colvars: Synchronizing (emptying the buffer of) trajectory file "out.colvars.traj".
colvars: Writing the state file "rest.colvars.state".
colvars: Synchronizing (emptying the buffer of) trajectory file "out.colvars.traj".
colvars: Writing the state file "rest.colvars.state".
colvars: Synchronizing (emptying the buffer of) trajectory file "out.colvars.traj".
colvars: Writing the state file "rest.colvars.state".
colvars: Synchronizing (emptying the buffer of) trajectory file "out.colvars.traj".
colvars: Writing the state file "rest.colvars.state".
colvars: Synchronizing (emptying the buffer of) trajectory file "out.colvars.traj".
colvars: Writing the state file "rest.colvars.state".
colvars: Synchronizing (emptying the buffer of) trajectory file "out.colvars.traj".
colvars: Writing the state file "rest.colvars.state".
colvars: Synchronizing (emptying the buffer of) trajectory file "out.colvars.traj".
colvars: Writing the state file "rest.colvars.state".
Loop time of 32033.3 on 84 procs for 10000000 steps with 32000 atoms

colvars: Saving collective variables state to "out.colvars.state".
colvars: Resetting the Collective Variables Module.

Please see the log.cite file for references relevant to this simulation
